$DATA1 SOURCE='HSPICE' VERSION='J-2014.09-2 64-BIT'
.TITLE '.title 16nm_finfet'
 num              ioff             ion              a               
                  temper           alter#          
  1.000e+00        4.174e-09        6.309e-05        1.511e+04      
                   2.500e+01       1               
  2.000e+00        8.348e-09        1.262e-04        1.511e+04      
                   2.500e+01       1               
  3.000e+00        1.252e-08        1.893e-04        1.511e+04      
                   2.500e+01       1               
  4.000e+00        1.670e-08        2.524e-04        1.511e+04      
                   2.500e+01       1               
  5.000e+00        2.087e-08        3.155e-04        1.511e+04      
                   2.500e+01       1               
  6.000e+00        2.505e-08        3.786e-04        1.511e+04      
                   2.500e+01       1               
  7.000e+00        2.922e-08        4.416e-04        1.511e+04      
                   2.500e+01       1               
  8.000e+00        3.339e-08        5.047e-04        1.511e+04      
                   2.500e+01       1               
  9.000e+00        3.757e-08        5.678e-04        1.511e+04      
                   2.500e+01       1               
  1.000e+01        4.174e-08        6.309e-04        1.511e+04      
                   2.500e+01       1               
