 ****** HSPICE -- J-2014.09-2 64-BIT (Oct 22 2014) win64 ******                 
  Copyright (C) 2014 Synopsys, Inc. All Rights Reserved.                        
  Unpublished-rights reserved under US copyright laws.
  This program is protected by law and is subject to the
  terms and conditions of the license agreement from Synopsys.
  Use of this program is your acceptance to be bound by the
  license agreement. HSPICE is the trademark of Synopsys, Inc.
  Input File: rc.sp                                                             
  Command line options: -i rc.sp -o rc.lis
  lic:  
  lic: FLEXlm: v10.9.8 
  lic: USER:   10743                HOSTNAME: LAPTOP-MN412F23 
  lic: HOSTID: "d8f3bceae1f2 005056c00001 005056c00008 00ff5e5928a2 d8f3bceae1f1
  daf3bceae1f1 faf3bce
  lic: Using FLEXlm license file: 
  lic: 27000@LAPTOP-MN412F23 
  lic: Checkout 1 hspice 
  lic: License/Maintenance for hspice will expire on 30-dec-2030/2019.2019 
  lic: 1(in_use)/99(total) FLOATING license(s) on SERVER 27000@LAPTOP-MN412F23 
  lic:   
 Init: read install configuration file: C:\synopsys\Hspice_J-2014.09-2\meta.cfg
  **info** (rc.sp:11) DC voltage reset to initial transient source value              in source        0:vin                 new dc=  0.0000D+00
  
1****** HSPICE -- J-2014.09-2 64-BIT (Oct 22 2014) win64 ******                 
 ******  
 *rc.sp

 ****** element node table
                           
 0                c1 vin   
 in               r1 vin   
 out              r1 c1    
 *****************************************************************
 ******  option summary
 ******
 runlvl  = 3         bypass  = 2         
 **info** dc convergence successful at Newton-Raphson method 
1****** HSPICE -- J-2014.09-2 64-BIT (Oct 22 2014) win64 ******                 
 ******  
 *rc.sp

 ****** operating point information tnom=  25.000 temp=  70.000 ******
 ****** operating point status is voltage   simulation time is     0.     
    node    =voltage      node    =voltage

 +0:in      =   0.      0:out     =   0.     

 ******  
 *rc.sp

 ****** transient analysis tnom=  25.000 temp=  70.000 ******
 tplh= 137.5997p  targ=   2.1126n   trig=   1.9750n
 tphl= 137.3344p  targ=   2.9623n   trig=   2.8250n
 tpd= 137.4671p

          ***** job concluded
1****** HSPICE -- J-2014.09-2 64-BIT (Oct 22 2014) win64 ******                 
 ******  
 *rc.sp

 ****** job statistics summary tnom=  25.000 temp=  70.000 ******

  ******  HSPICE Threads Information  ******

  Command Line Threads Count :     1
  Available CPU Count        :    16
  Actual Threads Count       :     1


  ******  Circuit Statistics  ******
  # nodes       =       3 # elements   =       3
  # resistors   =       1 # capacitors =       1 # inductors   =       0
  # mutual_inds =       0 # vccs       =       0 # vcvs        =       0
  # cccs        =       0 # ccvs       =       0 # volt_srcs   =       1
  # curr_srcs   =       0 # diodes     =       0 # bjts        =       0
  # jfets       =       0 # mosfets    =       0 # U elements  =       0
  # T elements  =       0 # W elements =       0 # B elements  =       0
  # S elements  =       0 # P elements =       0 # va device   =       0
  # vector_srcs =       0 # N elements =       0


  ******  Runtime Statistics (seconds)  ******

  analysis           time    # points   tot. iter  conv.iter
  op point           0.00           1           3
  transient          0.00        5001         242         121 rev=        11
  readin             0.01
  errchk             0.13
  setup              0.00
  output             0.00


           peak memory used         50.70 megabytes
           total cpu time            0.14 seconds
           total elapsed time        0.18 seconds
           job started at     12:35:08 09/29/2021
           job ended   at     12:35:08 09/29/2021


  lic: Release hspice token(s) 
 lic: total license checkout elapse time:        0.04(s)
